Version 4
SHEET 1 1744 1748
WIRE -208 48 -496 48
WIRE 448 48 -208 48
WIRE 608 48 448 48
WIRE 912 48 608 48
WIRE 1056 48 912 48
WIRE 608 176 608 48
WIRE 912 176 912 48
WIRE 720 192 656 192
WIRE 864 192 720 192
WIRE 448 224 448 48
WIRE 608 224 448 224
WIRE 1056 224 1056 48
WIRE 1056 224 912 224
WIRE -496 336 -496 48
WIRE -208 336 -208 48
WIRE 608 432 608 272
WIRE 912 432 912 272
WIRE 784 448 656 448
WIRE 864 448 784 448
WIRE 448 480 448 224
WIRE 608 480 448 480
WIRE 1056 480 1056 224
WIRE 1056 480 912 480
WIRE 784 496 784 448
WIRE 608 544 608 528
WIRE 720 544 720 192
WIRE 720 544 608 544
WIRE 912 640 912 528
WIRE 1152 640 912 640
WIRE 608 816 608 544
WIRE 912 816 912 640
WIRE 800 864 608 864
WIRE 912 864 800 864
WIRE 560 896 480 896
WIRE 992 896 960 896
WIRE 480 928 480 896
WIRE 480 928 448 928
WIRE 992 928 992 896
WIRE 992 928 480 928
WIRE -2048 992 -2048 816
WIRE -1696 992 -1696 816
WIRE -1376 992 -1376 864
WIRE -992 992 -992 864
WIRE 608 1120 608 912
WIRE 912 1120 912 912
WIRE -496 1136 -496 416
WIRE -352 1136 -496 1136
WIRE -1376 1152 -1376 1072
WIRE -1168 1152 -1376 1152
WIRE -992 1152 -992 1072
WIRE -992 1152 -1168 1152
WIRE 800 1168 800 864
WIRE 800 1168 608 1168
WIRE 912 1168 800 1168
WIRE 560 1200 448 1200
WIRE 1088 1200 960 1200
WIRE -1168 1264 -1168 1152
WIRE 608 1264 608 1216
WIRE 720 1264 608 1264
WIRE 912 1264 912 1216
WIRE 912 1264 720 1264
WIRE -2048 1296 -2048 1072
WIRE -1840 1296 -2048 1296
WIRE -1696 1296 -1696 1072
WIRE -1696 1296 -1840 1296
WIRE -1168 1472 -1168 1344
WIRE -496 1472 -496 1136
WIRE 720 1472 720 1264
WIRE -1840 1488 -1840 1296
WIRE -496 1520 -592 1520
WIRE 800 1520 800 1168
WIRE 800 1520 720 1520
WIRE -352 1552 -352 1136
WIRE -352 1552 -448 1552
WIRE 672 1552 -352 1552
WIRE -592 1648 -592 1520
WIRE -496 1648 -496 1568
WIRE -496 1648 -592 1648
WIRE -208 1648 -208 416
WIRE -208 1648 -496 1648
WIRE 720 1648 720 1568
WIRE 720 1648 -208 1648
WIRE 800 1648 800 1520
WIRE 800 1648 720 1648
WIRE 720 1728 720 1648
FLAG 720 1728 0
FLAG -1168 1472 0
FLAG 448 1200 v_in_1
FLAG 1088 1200 v_in_2
FLAG -1376 864 v_in_1
FLAG -992 864 v_in_2
FLAG 1152 640 v_out
FLAG 784 496 cascode_p
FLAG 448 928 cascode_n
FLAG -2048 816 cascode_p
FLAG -1696 816 cascode_n
FLAG -1840 1488 0
DATAFLAG 784 448 ""
DATAFLAG 512 1200 ""
DATAFLAG 1040 1200 ""
DATAFLAG 768 1264 ""
DATAFLAG 512 896 ""
DATAFLAG 624 1552 ""
DATAFLAG -432 1136 ""
DATAFLAG 608 624 ""
DATAFLAG 912 608 ""
DATAFLAG 608 1024 ""
DATAFLAG 608 352 ""
DATAFLAG 912 336 ""
DATAFLAG 912 1024 ""
DATAFLAG -496 1456 "Id(M4)"
DATAFLAG 720 1392 "Id(M3)"
SYMBOL nmos4 560 1120 R0
SYMATTR InstName M1
SYMATTR Value nch
SYMATTR Value2 l=1u w=15u
SYMBOL nmos4 960 1120 M0
SYMATTR InstName M2
SYMATTR Value nch
SYMATTR Value2 l=1u w=15u
SYMBOL nmos4 672 1472 R0
SYMATTR InstName M3
SYMATTR Value nch
SYMATTR Value2 l=1u w=30u
SYMBOL nmos4 -448 1472 M0
SYMATTR InstName M4
SYMATTR Value nch
SYMATTR Value2 l=1u w=15u
SYMBOL pmos4 656 272 R180
SYMATTR InstName M5
SYMATTR Value pch
SYMATTR Value2 l=1u w=15u
SYMBOL pmos4 864 272 M180
SYMATTR InstName M6
SYMATTR Value pch
SYMATTR Value2 l=1u w=15u
SYMBOL current -496 336 R0
SYMATTR InstName I1
SYMATTR Value 15µ
SYMBOL voltage -208 320 R0
WINDOW 123 0 0 Left 0
WINDOW 39 0 0 Left 0
SYMATTR InstName V1
SYMATTR Value 1.8
SYMBOL voltage -1376 976 R0
WINDOW 123 24 124 Left 2
WINDOW 39 0 0 Left 0
SYMATTR Value2 AC 500m
SYMATTR InstName V2
SYMATTR Value ""
SYMBOL voltage -1168 1248 R0
WINDOW 123 0 0 Left 0
WINDOW 39 0 0 Left 0
SYMATTR InstName V4
SYMATTR Value 1.5
SYMBOL voltage -992 976 R0
WINDOW 123 24 124 Left 2
WINDOW 39 0 0 Left 0
SYMATTR Value2 AC -500m
SYMATTR InstName V3
SYMATTR Value ""
SYMBOL pmos4 656 528 R180
SYMATTR InstName M7
SYMATTR Value pch
SYMATTR Value2 l=1u w=15u
SYMBOL pmos4 864 528 M180
SYMATTR InstName M8
SYMATTR Value pch
SYMATTR Value2 l=1u w=15u
SYMBOL nmos4 560 816 R0
SYMATTR InstName M9
SYMATTR Value nch
SYMATTR Value2 l=1u w=15u
SYMBOL nmos4 960 816 M0
SYMATTR InstName M10
SYMATTR Value nch
SYMATTR Value2 l=1u w=15u
SYMBOL voltage -1696 976 R0
SYMATTR InstName V5
SYMATTR Value 1.4
SYMBOL voltage -2048 976 R0
WINDOW 123 0 0 Left 0
WINDOW 39 0 0 Left 0
SYMATTR InstName V6
SYMATTR Value 0.9
TEXT -336 -96 Left 2 !.lib 'C:\\Program Files\\LTC\\LTspiceXVII\\lib\\cmp\\log018.l' TT
TEXT -328 -48 Left 2 !;ac dec 10 10 1G
TEXT -320 0 Left 2 !.op
