Version 4
SHEET 1 880 788
WIRE 160 128 48 128
WIRE 416 128 160 128
WIRE 48 304 48 128
WIRE 0 320 -288 320
WIRE 160 352 160 128
WIRE 160 352 48 352
WIRE -288 384 -288 320
WIRE 416 384 416 128
WIRE -288 640 -288 464
WIRE 48 640 48 400
WIRE 48 640 -288 640
WIRE 416 640 416 464
WIRE 416 640 48 640
WIRE 48 688 48 640
FLAG 48 688 0
SYMBOL pmos4 0 400 M180
SYMATTR InstName M1
SYMATTR Value pch
SYMATTR Value2 l=1u w=3u
SYMBOL voltage -288 368 R0
WINDOW 123 0 0 Left 0
WINDOW 39 0 0 Left 0
SYMATTR InstName VGD
SYMATTR Value 0.9
SYMBOL voltage 416 368 R0
WINDOW 123 0 0 Left 0
WINDOW 39 0 0 Left 0
SYMATTR InstName VSD
SYMATTR Value 1.8
TEXT -312 32 Left 2 !.lib 'C:\\Program Files\\LTC\\LTspiceXVII\\lib\\cmp\\log018.l' TT
TEXT -304 72 Left 2 !.dc VGD 0 1.8 0.001
